10 
# Converted from the old .geometry file to CHAMP v2 .xyz file 
C     -1.157935 -0.733652  0.000000 
C      1.157935  0.733652  0.000000 
C     -3.466419  0.298187  0.000000 
C      3.466419 -0.298187  0.000000 
H     -3.706633  2.326423  0.000000 
H      3.706633 -2.326423  0.000000 
H     -0.963193 -2.772181  0.000000 
H      0.963193  2.772181  0.000000 
H     -5.146950 -0.855551  0.000000 
H      5.146950  0.855551  0.000000 

